SC.fds
Generated by PyroSim - Version 2022.2.0803
17-Nov-2022 14:33:11

&HEAD CHID='SC'/
&TIME T_END=300.0/
&DUMP COLUMN_DUMP_LIMIT=.TRUE., DT_SL3D=0.25, NFRAMES=600/

&MESH ID='MESH04-b-a', IJK=27,28,93, XB=15.7,18.4,8.8,14.4,2.4,21.0/
&MESH ID='MESH04-a', IJK=27,56,54, XB=15.7,18.4,8.8,14.4,-3.0,2.4/
&MESH ID='MESH04-b-b', IJK=27,28,64, XB=15.7,18.4,8.8,14.4,21.0,33.8/
&MESH ID='MESH-b', IJK=68,28,24, XB=11.3,18.1,6.0,8.8,0.0,2.4/
&MESH ID='MESH02', IJK=77,16,24, XB=3.6,11.3,6.6,8.2,0.0,2.4/
&MESH ID='MESH03', IJK=20,16,24, XB=18.1,20.1,6.6,8.2,0.0,2.4/
&MESH ID='MESH-a-c-merged', IJK=44,59,24, XB=14.3,18.7,0.1,6.0,0.0,2.4/

&SPEC ID='WATER VAPOR'/

&PART ID='Water01',
      SPEC_ID='WATER VAPOR',
      DIAMETER=500.0,
      MONODISPERSE=.TRUE.,
      AGE=10.0,
      SAMPLING_FACTOR=1/

&REAC ID='POLYURETHANE',
      FYI='NFPA Babrauskas',
      FUEL='REAC_FUEL',
      C=6.3,
      H=7.1,
      O=2.1,
      N=1.0,
      SOOT_YIELD=0.1,
      HEAT_OF_COMBUSTION=2.0E+4/

&PROP ID='BS 9251',
      PART_ID='Water01',
      K_FACTOR=40.0,
      OPERATING_PRESSURE=0.5,
      PARTICLE_VELOCITY=5.0,
      SPRAY_ANGLE=60.0,75.0/
&CTRL ID='invert', FUNCTION_TYPE='ALL', LATCH=.FALSE., INITIAL_STATE=.TRUE., INPUT_ID='Apt_Door_FF->OUT->OUT->OUT'/
&DEVC ID='SPRK1', PROP_ID='BS 9251', XYZ=16.0,4.8,2.3, QUANTITY='TIME', SETPOINT=0.0/
&DEVC ID='SPRK01', PROP_ID='BS 9251', XYZ=16.0,1.8,2.3, QUANTITY='TIME', SETPOINT=0.0/
&DEVC ID='cc_FSA_temp_2m', QUANTITY='TEMPERATURE', XYZ=16.4,8.2,1.5/
&DEVC ID='stair_temp_5', QUANTITY='TEMPERATURE', XYZ=16.2,9.0,2.1/
&DEVC ID='stair_vis_1', QUANTITY='VISIBILITY', XYZ=16.2,9.0,0.6/
&DEVC ID='stair_vis_2', QUANTITY='VISIBILITY', XYZ=16.2,9.0,1.1/
&DEVC ID='stair_vis_3', QUANTITY='VISIBILITY', XYZ=16.2,9.0,1.6/
&DEVC ID='stair_vis_4', QUANTITY='VISIBILITY', XYZ=16.2,9.0,1.9/
&DEVC ID='stair_vis_5', QUANTITY='VISIBILITY', XYZ=16.2,9.0,2.1/
&DEVC ID='stair_temp_1', QUANTITY='TEMPERATURE', XYZ=16.2,9.0,0.6/
&DEVC ID='stair_temp_2', QUANTITY='TEMPERATURE', XYZ=16.2,9.0,1.1/
&DEVC ID='stair_temp_3', QUANTITY='TEMPERATURE', XYZ=16.2,9.0,1.6/
&DEVC ID='stair_temp_4', QUANTITY='TEMPERATURE', XYZ=16.2,9.0,1.9/
&DEVC ID='stair_temp_10', QUANTITY='TEMPERATURE', XYZ=16.2,10.0,2.1/
&DEVC ID='stair_vis_6', QUANTITY='VISIBILITY', XYZ=16.2,10.0,0.6/
&DEVC ID='stair_vis_7', QUANTITY='VISIBILITY', XYZ=16.2,10.0,1.1/
&DEVC ID='stair_vis_8', QUANTITY='VISIBILITY', XYZ=16.2,10.0,1.6/
&DEVC ID='stair_vis_9', QUANTITY='VISIBILITY', XYZ=16.2,10.0,1.9/
&DEVC ID='stair_vis_10', QUANTITY='VISIBILITY', XYZ=16.2,10.0,2.1/
&DEVC ID='stair_temp_6', QUANTITY='TEMPERATURE', XYZ=16.2,10.0,0.6/
&DEVC ID='stair_temp_7', QUANTITY='TEMPERATURE', XYZ=16.2,10.0,1.1/
&DEVC ID='stair_temp_8', QUANTITY='TEMPERATURE', XYZ=16.2,10.0,1.6/
&DEVC ID='stair_temp_9', QUANTITY='TEMPERATURE', XYZ=16.2,10.0,1.9/
&DEVC ID='cc_pres_16', QUANTITY='PRESSURE', XYZ=19.4,7.4,1.9/
&DEVC ID='cc_pres_1', QUANTITY='PRESSURE', XYZ=7.9,7.4,0.4/
&DEVC ID='cc_pres_2', QUANTITY='PRESSURE', XYZ=7.9,7.4,0.9/
&DEVC ID='cc_pres_3', QUANTITY='PRESSURE', XYZ=7.9,7.4,1.4/
&DEVC ID='cc_pres_4', QUANTITY='PRESSURE', XYZ=7.9,7.4,1.9/
&DEVC ID='cc_pres_5', QUANTITY='PRESSURE', XYZ=4.2,7.4,0.4/
&DEVC ID='cc_pres_6', QUANTITY='PRESSURE', XYZ=4.2,7.4,0.9/
&DEVC ID='cc_pres_7', QUANTITY='PRESSURE', XYZ=4.2,7.4,1.4/
&DEVC ID='cc_pres_8', QUANTITY='PRESSURE', XYZ=4.2,7.4,1.9/
&DEVC ID='cc_pres_9', QUANTITY='PRESSURE', XYZ=14.1,7.4,0.4/
&DEVC ID='cc_pres_10', QUANTITY='PRESSURE', XYZ=14.1,7.4,0.9/
&DEVC ID='cc_pres_11', QUANTITY='PRESSURE', XYZ=14.1,7.4,1.4/
&DEVC ID='cc_pres_12', QUANTITY='PRESSURE', XYZ=14.1,7.4,1.9/
&DEVC ID='cc_pres_13', QUANTITY='PRESSURE', XYZ=19.4,7.4,0.4/
&DEVC ID='cc_pres_14', QUANTITY='PRESSURE', XYZ=19.4,7.4,0.9/
&DEVC ID='cc_pres_15', QUANTITY='PRESSURE', XYZ=19.4,7.4,1.4/
&DEVC ID='Apt_Door_FF->OUT->OUT->OUT', QUANTITY='TIME', XYZ=15.7,8.8,2.4, SETPOINT=60.0, INITIAL_STATE=.TRUE./
&DEVC ID='Stair_Door_FF->OUT->OUT->OUT', QUANTITY='TIME', XYZ=15.7,8.8,2.4, SETPOINT=0.0, INITIAL_STATE=.TRUE./

&MATL ID='GYPSUM PLASTER',
      FYI='Quintiere, Fire Behavior - NIST NRC Validation',
      SPECIFIC_HEAT=0.84,
      CONDUCTIVITY=0.48,
      DENSITY=1440.0/

&SURF ID='Plasterboard',
      COLOR='GRAY 80',
      DEFAULT=.TRUE.,
      BACKING='VOID',
      MATL_ID(1,1)='GYPSUM PLASTER',
      MATL_MASS_FRACTION(1,1)=1.0,
      THICKNESS(1)=0.05/
&SURF ID='fire',
      COLOR='RED',
      HRRPUA=445.0/
&SURF ID='extract',
      RGB=26,128,26,
      VOLUME_FLOW=5.0/

&OBST ID='Obstruction', XB=12.7,16.8,6.3,6.6,0.0,2.4, COLOR='GRAY 40', SURF_ID='Plasterboard'/ 
&OBST ID='Obstruction', XB=11.3118,11.6,5.18626,6.45797,0.0,2.4, COLOR='GRAY 40', SURF_ID='Plasterboard'/ 
&OBST ID='Obstruction', XB=12.7,13.1781,5.25,6.36312,0.0,2.4, COLOR='GRAY 40', SURF_ID='Plasterboard'/ 
&OBST ID='Obstruction', XB=11.4,13.1971,5.2,5.4,0.0,2.4, COLOR='GRAY 40', SURF_ID='Plasterboard'/ 
&OBST ID='Obstruction', XB=11.4,15.6,8.7,8.8,0.0,2.4, COLOR='GRAY 40', SURF_ID='Plasterboard'/ 
&OBST ID='Obstruction', XB=13.0528,14.1239,8.58494,8.8,0.0,2.4, COLOR='GRAY 40', SURF_ID='Plasterboard'/ 
&OBST ID='Obstruction', XB=13.5034,13.7034,8.7,10.7786,0.0,2.4, COLOR='GRAY 40', SURF_ID='Plasterboard'/ 
&OBST ID='Obstruction', XB=18.16,18.4691,8.6188,14.2416,0.0,2.4, COLOR='GRAY 40', SURF_ID='Plasterboard'/ 
&OBST ID='Obstruction', XB=17.8,20.074,6.5,6.7,0.0,2.4, COLOR='GRAY 40', SURF_ID='Plasterboard'/ 
&OBST ID='Obstruction', XB=17.6,17.9704,6.3,6.6,0.0,2.4, COLOR='GRAY 40', SURF_ID='Plasterboard'/ 
&OBST ID='Obstruction', XB=17.7521,18.7564,8.0,8.73337,0.0,2.4, COLOR='GRAY 40', SURF_ID='Plasterboard'/ 
&OBST ID='Obstruction', XB=7.1523,7.3523,8.09274,14.4565,0.0,2.4, COLOR='GRAY 40', SURF_ID='Plasterboard'/ 
&OBST ID='Obstruction', XB=10.3811,10.5811,9.90148,14.4521,0.0,2.4, COLOR='GRAY 40', SURF_ID='Plasterboard'/ 
&OBST ID='Obstruction', XB=7.3523,10.4259,10.8795,10.9958,0.0,2.4, COLOR='GRAY 40', SURF_ID='Plasterboard'/ 
&OBST ID='Obstruction', XB=8.7664,8.90381,8.15244,10.9958,0.0,2.4, COLOR='GRAY 40', SURF_ID='Plasterboard'/ 
&OBST ID='Obstruction', XB=2.9415,3.03182,10.8291,14.3665,0.0,2.4, COLOR='GRAY 40', SURF_ID='Plasterboard'/ 
&OBST ID='Obstruction', XB=2.63955,2.75324,6.6212,8.13854,0.0,2.4, COLOR='GRAY 40', SURF_ID='Plasterboard'/ 
&OBST ID='Obstruction', XB=5.06766,5.72563,8.02314,8.69005,0.0,2.4, COLOR='GRAY 40', SURF_ID='Plasterboard'/ 
&OBST ID='Obstruction', XB=5.06042,5.69439,5.69393,6.6737,0.0,2.4, COLOR='GRAY 40', SURF_ID='Plasterboard'/ 
&OBST ID='Obstruction', XB=10.1956,10.7626,5.94368,6.69487,0.0,2.4, COLOR='GRAY 40', SURF_ID='Plasterboard'/ 
&OBST ID='Obstruction', XB=10.0,10.6194,8.08496,8.69274,0.0,2.4, COLOR='GRAY 40', SURF_ID='Plasterboard'/ 
&OBST ID='Obstruction', XB=5.08412,5.63071,0.091564,0.941804,0.0,2.4, COLOR='GRAY 40', SURF_ID='Plasterboard'/ 
&OBST ID='Obstruction', XB=10.2115,10.7732,0.134914,0.934545,0.0,2.4, COLOR='GRAY 40', SURF_ID='Plasterboard'/ 
&OBST ID='Obstruction', XB=15.3787,15.9195,0.072653,0.9281,0.0,2.4, COLOR='GRAY 40', SURF_ID='Plasterboard'/ 
&OBST ID='Obstruction', XB=18.0,18.5116,0.161434,0.919768,0.0,2.4, COLOR='GRAY 40', SURF_ID='Plasterboard'/ 
&OBST ID='Obstruction', XB=0.114724,0.786933,5.94644,6.58123,0.0,2.4, COLOR='GRAY 40', SURF_ID='Plasterboard'/ 
&OBST ID='Obstruction', XB=0.167642,0.685574,7.11015,7.49595,0.0,2.4, COLOR='GRAY 40', SURF_ID='Plasterboard'/ 
&OBST ID='Obstruction', XB=0.158875,0.750797,8.0841,8.69188,0.0,2.4, COLOR='GRAY 40', SURF_ID='Plasterboard'/ 
&OBST ID='Obstruction', XB=0.159447,0.520425,13.6293,14.2661,0.0,2.4, COLOR='GRAY 40', SURF_ID='Plasterboard'/ 
&OBST ID='Obstruction', XB=5.1122,5.64781,14.0,14.3451,0.0,2.4, COLOR='GRAY 40', SURF_ID='Plasterboard'/ 
&OBST ID='Obstruction', XB=10.2393,10.7512,14.0,14.3706,0.0,2.4, COLOR='GRAY 40', SURF_ID='Plasterboard'/ 
&OBST ID='Obstruction', XB=15.122,15.8869,14.0,14.3282,0.0,2.4, COLOR='GRAY 40', SURF_ID='Plasterboard'/ 
&OBST ID='Obstruction', XB=17.928,18.2246,13.6105,14.3364,0.0,2.4, COLOR='GRAY 40', SURF_ID='Plasterboard'/ 
&OBST ID='Obstruction', XB=23.066,23.266,13.5926,14.4349,0.0,2.4, COLOR='GRAY 40', SURF_ID='Plasterboard'/ 
&OBST ID='Obstruction', XB=23.0,23.3115,8.14563,8.65149,0.0,2.4, COLOR='GRAY 40', SURF_ID='Plasterboard'/ 
&OBST ID='Obstruction', XB=22.9298,23.2918,5.85912,6.45044,0.0,2.4, COLOR='GRAY 40', SURF_ID='Plasterboard'/ 
&OBST ID='Obstruction', XB=15.2939,15.9519,5.87455,6.32005,0.0,2.4, COLOR='GRAY 40', SURF_ID='Plasterboard'/ 
&OBST ID='Obstruction', XB=13.0,16.6936,6.1,6.3,0.0,2.4, COLOR='GRAY 40', SURF_ID='Plasterboard'/ 
&OBST ID='Obstruction', XB=17.9215,18.537,5.62252,6.62547,0.0,2.4, COLOR='GRAY 40', SURF_ID='Plasterboard'/ 
&OBST ID='Obstruction', XB=8.59796,8.69573,5.57457,6.61451,0.0,2.4, COLOR='GRAY 40', SURF_ID='Plasterboard'/ 
&OBST ID='Obstruction', XB=11.337,11.4448,0.175045,5.18626,0.0,2.4, COLOR='GRAY 40', SURF_ID='Plasterboard'/ 
&OBST ID='Obstruction', XB=5.43079,5.54392,0.888638,5.69393,0.0,2.4, COLOR='GRAY 40', SURF_ID='Plasterboard'/ 
&OBST ID='Obstruction', XB=16.6987,16.8191,8.42532,9.27393,0.0,33.0, COLOR='GRAY 40', SURF_ID='Plasterboard'/ 
&OBST ID='Obstruction', XB=16.6,17.2885,8.4,8.88875,0.0,33.0, COLOR='GRAY 40', SURF_ID='Plasterboard'/ 
&OBST ID='Obstruction', XB=12.1,13.0,8.7,8.8,0.0,2.0, PERMIT_HOLE=.FALSE., SURF_ID='Plasterboard'/ 
&OBST ID='Obstruction', XB=14.2,15.1,8.7,8.8,0.0,2.0, PERMIT_HOLE=.FALSE., SURF_ID='Plasterboard'/ 
&OBST ID='Obstruction', XB=15.6,17.3,8.5,9.4,-3.1,0.0, COLOR='GRAY 40', SURF_ID='Plasterboard'/ 
&OBST ID='Obstruction', XB=11.3,11.4,3.6,3.7,0.0,2.4, COLOR='GRAY 40', SURF_ID='Plasterboard'/ 
&OBST ID='Obstruction', XB=11.3,14.3,5.2,5.3,0.0,2.4, COLOR='GRAY 40', SURF_ID='Plasterboard'/ 
&OBST ID='Obstruction', XB=11.3,18.1,-1.38778E-16,0.2,0.0,2.4, COLOR='GRAY 40', SURF_ID='Plasterboard'/ 
&OBST ID='Obstruction', XB=11.4,14.3,3.5,3.6,0.0,2.4, COLOR='GRAY 40', SURF_ID='Plasterboard'/ 
&OBST ID='Obstruction', XB=11.5,11.6,5.4,6.1,0.0,2.4, COLOR='GRAY 40', SURF_ID='Plasterboard'/ 
&OBST ID='Obstruction', XB=11.5,12.8,5.3,5.4,0.0,2.4, COLOR='GRAY 40', SURF_ID='Plasterboard'/ 
&OBST ID='Obstruction', XB=12.7,12.8,5.4,6.1,0.0,2.4, COLOR='GRAY 40', SURF_ID='Plasterboard'/ 
&OBST ID='Obstruction', XB=14.2,14.3,0.2,3.5,0.0,2.4, COLOR='GRAY 40', SURF_ID='Plasterboard'/ 
&OBST ID='Obstruction', XB=14.2,14.3,3.6,5.2,0.0,2.4, COLOR='GRAY 40', SURF_ID='Plasterboard'/ 
&OBST ID='Obstruction', XB=14.2,14.3,5.3,6.3,0.0,2.4, COLOR='GRAY 40', SURF_ID='Plasterboard'/ 
&OBST ID='Obstruction', XB=17.4,17.5,0.2,2.6,0.0,2.4, COLOR='GRAY 40', SURF_ID='Plasterboard'/ 
&OBST ID='Obstruction', XB=17.4,18.0,2.6,2.7,0.0,2.4, COLOR='GRAY 40', SURF_ID='Plasterboard'/ 
&OBST ID='Obstruction', XB=17.9,18.1,6.5,6.6,0.0,2.4, COLOR='GRAY 40', SURF_ID='Plasterboard'/ 
&OBST ID='Obstruction', XB=18.1,18.8,6.6,6.6,0.0,2.4, COLOR='GRAY 40', SURF_ID='Plasterboard'/ 
&OBST ID='Obstruction', XB=11.6,12.7,5.4,5.4,-3.0,1.52656E-15, COLOR='GRAY 40', SURF_ID='Plasterboard'/ 
&OBST ID='Obstruction', XB=11.6,12.7,6.1,6.1,-3.0,1.52656E-15, COLOR='GRAY 40', SURF_ID='Plasterboard'/ 
&OBST ID='Obstruction', XB=11.6,11.6,5.4,6.1,-3.0,1.52656E-15, COLOR='GRAY 40', SURF_ID='Plasterboard'/ 
&OBST ID='Obstruction', XB=12.7,12.7,5.4,6.1,-3.0,1.52656E-15, COLOR='GRAY 40', SURF_ID='Plasterboard'/ 
&OBST ID='Obstruction', XB=15.7,16.9,10.3,10.5,9.0,9.1, COLOR='GRAY 40', SURF_ID='Plasterboard'/ 
&OBST ID='Obstruction', XB=15.7,16.9,10.5,10.6,9.0,9.2, COLOR='GRAY 40', SURF_ID='Plasterboard'/ 
&OBST ID='Obstruction', XB=15.7,16.9,10.6,10.7,9.1,9.2, COLOR='GRAY 40', SURF_ID='Plasterboard'/ 
&OBST ID='Obstruction', XB=15.7,16.9,10.7,10.8,9.1,9.3, COLOR='GRAY 40', SURF_ID='Plasterboard'/ 
&OBST ID='Obstruction', XB=15.7,16.9,10.8,10.9,9.2,9.3, COLOR='GRAY 40', SURF_ID='Plasterboard'/ 
&OBST ID='Obstruction', XB=15.7,16.9,10.9,11.0,9.2,9.4, COLOR='GRAY 40', SURF_ID='Plasterboard'/ 
&OBST ID='Obstruction', XB=15.7,16.9,11.0,11.1,9.3,9.4, COLOR='GRAY 40', SURF_ID='Plasterboard'/ 
&OBST ID='Obstruction', XB=15.7,16.9,11.1,11.2,9.3,9.5, COLOR='GRAY 40', SURF_ID='Plasterboard'/ 
&OBST ID='Obstruction', XB=15.7,16.9,11.2,11.3,9.4,9.5, COLOR='GRAY 40', SURF_ID='Plasterboard'/ 
&OBST ID='Obstruction', XB=15.7,16.9,11.3,11.4,9.4,9.6, COLOR='GRAY 40', SURF_ID='Plasterboard'/ 
&OBST ID='Obstruction', XB=15.7,16.9,11.4,11.5,9.5,9.6, COLOR='GRAY 40', SURF_ID='Plasterboard'/ 
&OBST ID='Obstruction', XB=15.7,16.9,11.5,11.6,9.5,9.7, COLOR='GRAY 40', SURF_ID='Plasterboard'/ 
&OBST ID='Obstruction', XB=15.7,16.9,11.6,11.7,9.6,9.7, COLOR='GRAY 40', SURF_ID='Plasterboard'/ 
&OBST ID='Obstruction', XB=15.7,16.9,11.7,11.8,9.6,9.8, COLOR='GRAY 40', SURF_ID='Plasterboard'/ 
&OBST ID='Obstruction', XB=15.7,16.9,11.8,11.9,9.7,9.8, COLOR='GRAY 40', SURF_ID='Plasterboard'/ 
&OBST ID='Obstruction', XB=15.7,16.9,11.9,12.0,9.7,9.9, COLOR='GRAY 40', SURF_ID='Plasterboard'/ 
&OBST ID='Obstruction', XB=15.7,16.9,12.0,12.1,9.8,9.9, COLOR='GRAY 40', SURF_ID='Plasterboard'/ 
&OBST ID='Obstruction', XB=15.7,16.9,12.1,12.2,9.8,10.0, COLOR='GRAY 40', SURF_ID='Plasterboard'/ 
&OBST ID='Obstruction', XB=15.7,16.9,12.2,12.3,9.9,10.0, COLOR='GRAY 40', SURF_ID='Plasterboard'/ 
&OBST ID='Obstruction', XB=15.7,16.9,12.3,12.4,9.9,10.1, COLOR='GRAY 40', SURF_ID='Plasterboard'/ 
&OBST ID='Obstruction', XB=15.7,16.9,12.4,12.5,10.0,10.1, COLOR='GRAY 40', SURF_ID='Plasterboard'/ 
&OBST ID='Obstruction', XB=15.7,16.9,12.5,12.6,10.0,10.2, COLOR='GRAY 40', SURF_ID='Plasterboard'/ 
&OBST ID='Obstruction', XB=15.7,16.9,12.6,12.7,10.1,10.2, COLOR='GRAY 40', SURF_ID='Plasterboard'/ 
&OBST ID='Obstruction', XB=15.7,16.9,12.7,12.8,10.1,10.3, COLOR='GRAY 40', SURF_ID='Plasterboard'/ 
&OBST ID='Obstruction', XB=15.7,16.9,12.8,13.0,10.2,10.3, COLOR='GRAY 40', SURF_ID='Plasterboard'/ 
&OBST ID='Obstruction', XB=15.7,16.9,12.7,13.0,10.4,10.5, COLOR='GRAY 40', SURF_ID='Plasterboard'/ 
&OBST ID='Obstruction', XB=15.7,16.9,10.3,10.5,12.0,12.1, COLOR='GRAY 40', SURF_ID='Plasterboard'/ 
&OBST ID='Obstruction', XB=15.7,16.9,10.5,10.6,12.0,12.2, COLOR='GRAY 40', SURF_ID='Plasterboard'/ 
&OBST ID='Obstruction', XB=15.7,16.9,10.6,10.7,12.1,12.2, COLOR='GRAY 40', SURF_ID='Plasterboard'/ 
&OBST ID='Obstruction', XB=15.7,16.9,10.7,10.8,12.1,12.3, COLOR='GRAY 40', SURF_ID='Plasterboard'/ 
&OBST ID='Obstruction', XB=15.7,16.9,10.8,10.9,12.2,12.3, COLOR='GRAY 40', SURF_ID='Plasterboard'/ 
&OBST ID='Obstruction', XB=15.7,16.9,10.9,11.0,12.2,12.4, COLOR='GRAY 40', SURF_ID='Plasterboard'/ 
&OBST ID='Obstruction', XB=15.7,16.9,11.0,11.1,12.3,12.4, COLOR='GRAY 40', SURF_ID='Plasterboard'/ 
&OBST ID='Obstruction', XB=15.7,16.9,11.1,11.2,12.3,12.5, COLOR='GRAY 40', SURF_ID='Plasterboard'/ 
&OBST ID='Obstruction', XB=15.7,16.9,11.2,11.3,12.4,12.5, COLOR='GRAY 40', SURF_ID='Plasterboard'/ 
&OBST ID='Obstruction', XB=15.7,16.9,11.3,11.4,12.4,12.6, COLOR='GRAY 40', SURF_ID='Plasterboard'/ 
&OBST ID='Obstruction', XB=15.7,16.9,11.4,11.5,12.5,12.6, COLOR='GRAY 40', SURF_ID='Plasterboard'/ 
&OBST ID='Obstruction', XB=15.7,16.9,11.5,11.6,12.5,12.7, COLOR='GRAY 40', SURF_ID='Plasterboard'/ 
&OBST ID='Obstruction', XB=15.7,16.9,11.6,11.7,12.6,12.7, COLOR='GRAY 40', SURF_ID='Plasterboard'/ 
&OBST ID='Obstruction', XB=15.7,16.9,11.7,11.8,12.6,12.8, COLOR='GRAY 40', SURF_ID='Plasterboard'/ 
&OBST ID='Obstruction', XB=15.7,16.9,11.8,11.9,12.7,12.8, COLOR='GRAY 40', SURF_ID='Plasterboard'/ 
&OBST ID='Obstruction', XB=15.7,16.9,11.9,12.0,12.7,12.9, COLOR='GRAY 40', SURF_ID='Plasterboard'/ 
&OBST ID='Obstruction', XB=15.7,16.9,12.0,12.1,12.8,12.9, COLOR='GRAY 40', SURF_ID='Plasterboard'/ 
&OBST ID='Obstruction', XB=15.7,16.9,12.1,12.2,12.8,13.0, COLOR='GRAY 40', SURF_ID='Plasterboard'/ 
&OBST ID='Obstruction', XB=15.7,16.9,12.2,12.3,12.9,13.0, COLOR='GRAY 40', SURF_ID='Plasterboard'/ 
&OBST ID='Obstruction', XB=15.7,16.9,12.3,12.4,12.9,13.1, COLOR='GRAY 40', SURF_ID='Plasterboard'/ 
&OBST ID='Obstruction', XB=15.7,16.9,12.4,12.5,13.0,13.1, COLOR='GRAY 40', SURF_ID='Plasterboard'/ 
&OBST ID='Obstruction', XB=15.7,16.9,12.5,12.6,13.0,13.2, COLOR='GRAY 40', SURF_ID='Plasterboard'/ 
&OBST ID='Obstruction', XB=15.7,16.9,12.6,12.7,13.1,13.2, COLOR='GRAY 40', SURF_ID='Plasterboard'/ 
&OBST ID='Obstruction', XB=15.7,16.9,12.7,12.8,13.1,13.3, COLOR='GRAY 40', SURF_ID='Plasterboard'/ 
&OBST ID='Obstruction', XB=15.7,16.9,12.8,13.0,13.2,13.3, COLOR='GRAY 40', SURF_ID='Plasterboard'/ 
&OBST ID='Obstruction', XB=15.7,16.9,12.7,13.0,13.4,13.5, COLOR='GRAY 40', SURF_ID='Plasterboard'/ 
&OBST ID='Obstruction', XB=15.7,16.9,10.3,10.5,15.0,15.1, COLOR='GRAY 40', SURF_ID='Plasterboard'/ 
&OBST ID='Obstruction', XB=15.7,16.9,10.5,10.6,15.0,15.2, COLOR='GRAY 40', SURF_ID='Plasterboard'/ 
&OBST ID='Obstruction', XB=15.7,16.9,10.6,10.7,15.1,15.2, COLOR='GRAY 40', SURF_ID='Plasterboard'/ 
&OBST ID='Obstruction', XB=15.7,16.9,10.7,10.8,15.1,15.3, COLOR='GRAY 40', SURF_ID='Plasterboard'/ 
&OBST ID='Obstruction', XB=15.7,16.9,10.8,10.9,15.2,15.3, COLOR='GRAY 40', SURF_ID='Plasterboard'/ 
&OBST ID='Obstruction', XB=15.7,16.9,10.9,11.0,15.2,15.4, COLOR='GRAY 40', SURF_ID='Plasterboard'/ 
&OBST ID='Obstruction', XB=15.7,16.9,11.0,11.1,15.3,15.4, COLOR='GRAY 40', SURF_ID='Plasterboard'/ 
&OBST ID='Obstruction', XB=15.7,16.9,11.1,11.2,15.3,15.5, COLOR='GRAY 40', SURF_ID='Plasterboard'/ 
&OBST ID='Obstruction', XB=15.7,16.9,11.2,11.3,15.4,15.5, COLOR='GRAY 40', SURF_ID='Plasterboard'/ 
&OBST ID='Obstruction', XB=15.7,16.9,11.3,11.4,15.4,15.6, COLOR='GRAY 40', SURF_ID='Plasterboard'/ 
&OBST ID='Obstruction', XB=15.7,16.9,11.4,11.5,15.5,15.6, COLOR='GRAY 40', SURF_ID='Plasterboard'/ 
&OBST ID='Obstruction', XB=15.7,16.9,11.5,11.6,15.5,15.7, COLOR='GRAY 40', SURF_ID='Plasterboard'/ 
&OBST ID='Obstruction', XB=15.7,16.9,11.6,11.7,15.6,15.7, COLOR='GRAY 40', SURF_ID='Plasterboard'/ 
&OBST ID='Obstruction', XB=15.7,16.9,11.7,11.8,15.6,15.8, COLOR='GRAY 40', SURF_ID='Plasterboard'/ 
&OBST ID='Obstruction', XB=15.7,16.9,11.8,11.9,15.7,15.8, COLOR='GRAY 40', SURF_ID='Plasterboard'/ 
&OBST ID='Obstruction', XB=15.7,16.9,11.9,12.0,15.7,15.9, COLOR='GRAY 40', SURF_ID='Plasterboard'/ 
&OBST ID='Obstruction', XB=15.7,16.9,12.0,12.1,15.8,15.9, COLOR='GRAY 40', SURF_ID='Plasterboard'/ 
&OBST ID='Obstruction', XB=15.7,16.9,12.1,12.2,15.8,16.0, COLOR='GRAY 40', SURF_ID='Plasterboard'/ 
&OBST ID='Obstruction', XB=15.7,16.9,12.2,12.3,15.9,16.0, COLOR='GRAY 40', SURF_ID='Plasterboard'/ 
&OBST ID='Obstruction', XB=15.7,16.9,12.3,12.4,15.9,16.1, COLOR='GRAY 40', SURF_ID='Plasterboard'/ 
&OBST ID='Obstruction', XB=15.7,16.9,12.4,12.5,16.0,16.1, COLOR='GRAY 40', SURF_ID='Plasterboard'/ 
&OBST ID='Obstruction', XB=15.7,16.9,12.5,12.6,16.0,16.2, COLOR='GRAY 40', SURF_ID='Plasterboard'/ 
&OBST ID='Obstruction', XB=15.7,16.9,12.6,12.7,16.1,16.2, COLOR='GRAY 40', SURF_ID='Plasterboard'/ 
&OBST ID='Obstruction', XB=15.7,16.9,12.7,12.8,16.1,16.3, COLOR='GRAY 40', SURF_ID='Plasterboard'/ 
&OBST ID='Obstruction', XB=15.7,16.9,12.8,13.0,16.2,16.3, COLOR='GRAY 40', SURF_ID='Plasterboard'/ 
&OBST ID='Obstruction', XB=15.7,16.9,12.7,13.0,16.4,16.5, COLOR='GRAY 40', SURF_ID='Plasterboard'/ 
&OBST ID='Obstruction', XB=15.7,16.9,10.3,10.5,18.0,18.1, COLOR='GRAY 40', SURF_ID='Plasterboard'/ 
&OBST ID='Obstruction', XB=15.7,16.9,10.5,10.6,18.0,18.2, COLOR='GRAY 40', SURF_ID='Plasterboard'/ 
&OBST ID='Obstruction', XB=15.7,16.9,10.6,10.7,18.1,18.2, COLOR='GRAY 40', SURF_ID='Plasterboard'/ 
&OBST ID='Obstruction', XB=15.7,16.9,10.7,10.8,18.1,18.3, COLOR='GRAY 40', SURF_ID='Plasterboard'/ 
&OBST ID='Obstruction', XB=15.7,16.9,10.8,10.9,18.2,18.3, COLOR='GRAY 40', SURF_ID='Plasterboard'/ 
&OBST ID='Obstruction', XB=15.7,16.9,10.9,11.0,18.2,18.4, COLOR='GRAY 40', SURF_ID='Plasterboard'/ 
&OBST ID='Obstruction', XB=15.7,16.9,11.0,11.1,18.3,18.4, COLOR='GRAY 40', SURF_ID='Plasterboard'/ 
&OBST ID='Obstruction', XB=15.7,16.9,11.1,11.2,18.3,18.5, COLOR='GRAY 40', SURF_ID='Plasterboard'/ 
&OBST ID='Obstruction', XB=15.7,16.9,11.2,11.3,18.4,18.5, COLOR='GRAY 40', SURF_ID='Plasterboard'/ 
&OBST ID='Obstruction', XB=15.7,16.9,11.3,11.4,18.4,18.6, COLOR='GRAY 40', SURF_ID='Plasterboard'/ 
&OBST ID='Obstruction', XB=15.7,16.9,11.4,11.5,18.5,18.6, COLOR='GRAY 40', SURF_ID='Plasterboard'/ 
&OBST ID='Obstruction', XB=15.7,16.9,11.5,11.6,18.5,18.7, COLOR='GRAY 40', SURF_ID='Plasterboard'/ 
&OBST ID='Obstruction', XB=15.7,16.9,11.6,11.7,18.6,18.7, COLOR='GRAY 40', SURF_ID='Plasterboard'/ 
&OBST ID='Obstruction', XB=15.7,16.9,11.7,11.8,18.6,18.8, COLOR='GRAY 40', SURF_ID='Plasterboard'/ 
&OBST ID='Obstruction', XB=15.7,16.9,11.8,11.9,18.7,18.8, COLOR='GRAY 40', SURF_ID='Plasterboard'/ 
&OBST ID='Obstruction', XB=15.7,16.9,11.9,12.0,18.7,18.9, COLOR='GRAY 40', SURF_ID='Plasterboard'/ 
&OBST ID='Obstruction', XB=15.7,16.9,12.0,12.1,18.8,18.9, COLOR='GRAY 40', SURF_ID='Plasterboard'/ 
&OBST ID='Obstruction', XB=15.7,16.9,12.1,12.2,18.8,19.0, COLOR='GRAY 40', SURF_ID='Plasterboard'/ 
&OBST ID='Obstruction', XB=15.7,16.9,12.2,12.3,18.9,19.0, COLOR='GRAY 40', SURF_ID='Plasterboard'/ 
&OBST ID='Obstruction', XB=15.7,16.9,12.3,12.4,18.9,19.1, COLOR='GRAY 40', SURF_ID='Plasterboard'/ 
&OBST ID='Obstruction', XB=15.7,16.9,12.4,12.5,19.0,19.1, COLOR='GRAY 40', SURF_ID='Plasterboard'/ 
&OBST ID='Obstruction', XB=15.7,16.9,12.5,12.6,19.0,19.2, COLOR='GRAY 40', SURF_ID='Plasterboard'/ 
&OBST ID='Obstruction', XB=15.7,16.9,12.6,12.7,19.1,19.2, COLOR='GRAY 40', SURF_ID='Plasterboard'/ 
&OBST ID='Obstruction', XB=15.7,16.9,12.7,12.8,19.1,19.3, COLOR='GRAY 40', SURF_ID='Plasterboard'/ 
&OBST ID='Obstruction', XB=15.7,16.9,12.8,13.0,19.2,19.3, COLOR='GRAY 40', SURF_ID='Plasterboard'/ 
&OBST ID='Obstruction', XB=15.7,16.9,12.7,13.0,19.4,19.5, COLOR='GRAY 40', SURF_ID='Plasterboard'/ 
&OBST ID='Obstruction', XB=15.7,17.3,8.8,9.4,9.0,21.0, COLOR='GRAY 40', SURF_ID='Plasterboard'/ 
&OBST ID='Obstruction', XB=15.7,18.2,13.0,14.2,10.4,10.5, COLOR='GRAY 40', SURF_ID='Plasterboard'/ 
&OBST ID='Obstruction', XB=15.7,18.2,9.4,10.3,11.8,12.0, COLOR='GRAY 40', SURF_ID='Plasterboard'/ 
&OBST ID='Obstruction', XB=15.7,18.2,13.0,14.2,13.4,13.5, COLOR='GRAY 40', SURF_ID='Plasterboard'/ 
&OBST ID='Obstruction', XB=15.7,18.2,9.4,10.3,14.8,15.0, COLOR='GRAY 40', SURF_ID='Plasterboard'/ 
&OBST ID='Obstruction', XB=15.7,18.2,13.0,14.2,16.4,16.5, COLOR='GRAY 40', SURF_ID='Plasterboard'/ 
&OBST ID='Obstruction', XB=15.7,18.2,9.4,10.3,17.8,18.0, COLOR='GRAY 40', SURF_ID='Plasterboard'/ 
&OBST ID='Obstruction', XB=15.7,18.2,13.0,14.2,19.4,19.5, COLOR='GRAY 40', SURF_ID='Plasterboard'/ 
&OBST ID='Obstruction', XB=15.7,18.2,9.4,10.3,20.8,21.0, COLOR='GRAY 40', SURF_ID='Plasterboard'/ 
&OBST ID='Obstruction', XB=15.7,18.4,14.2,14.4,9.0,21.0, COLOR='GRAY 40', SURF_ID='Plasterboard'/ 
&OBST ID='Obstruction', XB=17.1,18.2,12.8,13.0,10.5,10.6, COLOR='GRAY 40', SURF_ID='Plasterboard'/ 
&OBST ID='Obstruction', XB=17.1,18.2,12.7,12.8,10.5,10.7, COLOR='GRAY 40', SURF_ID='Plasterboard'/ 
&OBST ID='Obstruction', XB=17.1,18.2,12.6,12.7,10.6,10.7, COLOR='GRAY 40', SURF_ID='Plasterboard'/ 
&OBST ID='Obstruction', XB=17.1,18.2,12.5,12.6,10.6,10.8, COLOR='GRAY 40', SURF_ID='Plasterboard'/ 
&OBST ID='Obstruction', XB=17.1,18.2,12.4,12.5,10.7,10.8, COLOR='GRAY 40', SURF_ID='Plasterboard'/ 
&OBST ID='Obstruction', XB=17.1,18.2,12.3,12.4,10.7,10.9, COLOR='GRAY 40', SURF_ID='Plasterboard'/ 
&OBST ID='Obstruction', XB=17.1,18.2,12.2,12.3,10.8,10.9, COLOR='GRAY 40', SURF_ID='Plasterboard'/ 
&OBST ID='Obstruction', XB=17.1,18.2,12.1,12.2,10.8,11.0, COLOR='GRAY 40', SURF_ID='Plasterboard'/ 
&OBST ID='Obstruction', XB=17.1,18.2,12.0,12.1,10.9,11.0, COLOR='GRAY 40', SURF_ID='Plasterboard'/ 
&OBST ID='Obstruction', XB=17.1,18.2,11.9,12.0,10.9,11.1, COLOR='GRAY 40', SURF_ID='Plasterboard'/ 
&OBST ID='Obstruction', XB=17.1,18.2,11.8,11.9,11.0,11.1, COLOR='GRAY 40', SURF_ID='Plasterboard'/ 
&OBST ID='Obstruction', XB=17.1,18.2,11.7,11.8,11.0,11.2, COLOR='GRAY 40', SURF_ID='Plasterboard'/ 
&OBST ID='Obstruction', XB=17.1,18.2,11.6,11.7,11.1,11.2, COLOR='GRAY 40', SURF_ID='Plasterboard'/ 
&OBST ID='Obstruction', XB=17.1,18.2,11.5,11.6,11.1,11.3, COLOR='GRAY 40', SURF_ID='Plasterboard'/ 
&OBST ID='Obstruction', XB=17.1,18.2,11.4,11.5,11.2,11.3, COLOR='GRAY 40', SURF_ID='Plasterboard'/ 
&OBST ID='Obstruction', XB=17.1,18.2,11.3,11.4,11.2,11.4, COLOR='GRAY 40', SURF_ID='Plasterboard'/ 
&OBST ID='Obstruction', XB=17.1,18.2,11.2,11.3,11.3,11.4, COLOR='GRAY 40', SURF_ID='Plasterboard'/ 
&OBST ID='Obstruction', XB=17.1,18.2,11.1,11.2,11.3,11.5, COLOR='GRAY 40', SURF_ID='Plasterboard'/ 
&OBST ID='Obstruction', XB=17.1,18.2,11.0,11.1,11.4,11.5, COLOR='GRAY 40', SURF_ID='Plasterboard'/ 
&OBST ID='Obstruction', XB=17.1,18.2,10.9,11.0,11.4,11.6, COLOR='GRAY 40', SURF_ID='Plasterboard'/ 
&OBST ID='Obstruction', XB=17.1,18.2,10.8,10.9,11.5,11.6, COLOR='GRAY 40', SURF_ID='Plasterboard'/ 
&OBST ID='Obstruction', XB=17.1,18.2,10.7,10.8,11.5,11.7, COLOR='GRAY 40', SURF_ID='Plasterboard'/ 
&OBST ID='Obstruction', XB=17.1,18.2,10.6,10.7,11.6,11.7, COLOR='GRAY 40', SURF_ID='Plasterboard'/ 
&OBST ID='Obstruction', XB=17.1,18.2,10.5,10.6,11.6,11.8, COLOR='GRAY 40', SURF_ID='Plasterboard'/ 
&OBST ID='Obstruction', XB=17.1,18.2,10.3,10.5,11.7,11.8, COLOR='GRAY 40', SURF_ID='Plasterboard'/ 
&OBST ID='Obstruction', XB=17.1,18.2,12.8,13.0,13.5,13.6, COLOR='GRAY 40', SURF_ID='Plasterboard'/ 
&OBST ID='Obstruction', XB=17.1,18.2,12.7,12.8,13.5,13.7, COLOR='GRAY 40', SURF_ID='Plasterboard'/ 
&OBST ID='Obstruction', XB=17.1,18.2,12.6,12.7,13.6,13.7, COLOR='GRAY 40', SURF_ID='Plasterboard'/ 
&OBST ID='Obstruction', XB=17.1,18.2,12.5,12.6,13.6,13.8, COLOR='GRAY 40', SURF_ID='Plasterboard'/ 
&OBST ID='Obstruction', XB=17.1,18.2,12.4,12.5,13.7,13.8, COLOR='GRAY 40', SURF_ID='Plasterboard'/ 
&OBST ID='Obstruction', XB=17.1,18.2,12.3,12.4,13.7,13.9, COLOR='GRAY 40', SURF_ID='Plasterboard'/ 
&OBST ID='Obstruction', XB=17.1,18.2,12.2,12.3,13.8,13.9, COLOR='GRAY 40', SURF_ID='Plasterboard'/ 
&OBST ID='Obstruction', XB=17.1,18.2,12.1,12.2,13.8,14.0, COLOR='GRAY 40', SURF_ID='Plasterboard'/ 
&OBST ID='Obstruction', XB=17.1,18.2,12.0,12.1,13.9,14.0, COLOR='GRAY 40', SURF_ID='Plasterboard'/ 
&OBST ID='Obstruction', XB=17.1,18.2,11.9,12.0,13.9,14.1, COLOR='GRAY 40', SURF_ID='Plasterboard'/ 
&OBST ID='Obstruction', XB=17.1,18.2,11.8,11.9,14.0,14.1, COLOR='GRAY 40', SURF_ID='Plasterboard'/ 
&OBST ID='Obstruction', XB=17.1,18.2,11.7,11.8,14.0,14.2, COLOR='GRAY 40', SURF_ID='Plasterboard'/ 
&OBST ID='Obstruction', XB=17.1,18.2,11.6,11.7,14.1,14.2, COLOR='GRAY 40', SURF_ID='Plasterboard'/ 
&OBST ID='Obstruction', XB=17.1,18.2,11.5,11.6,14.1,14.3, COLOR='GRAY 40', SURF_ID='Plasterboard'/ 
&OBST ID='Obstruction', XB=17.1,18.2,11.4,11.5,14.2,14.3, COLOR='GRAY 40', SURF_ID='Plasterboard'/ 
&OBST ID='Obstruction', XB=17.1,18.2,11.3,11.4,14.2,14.4, COLOR='GRAY 40', SURF_ID='Plasterboard'/ 
&OBST ID='Obstruction', XB=17.1,18.2,11.2,11.3,14.3,14.4, COLOR='GRAY 40', SURF_ID='Plasterboard'/ 
&OBST ID='Obstruction', XB=17.1,18.2,11.1,11.2,14.3,14.5, COLOR='GRAY 40', SURF_ID='Plasterboard'/ 
&OBST ID='Obstruction', XB=17.1,18.2,11.0,11.1,14.4,14.5, COLOR='GRAY 40', SURF_ID='Plasterboard'/ 
&OBST ID='Obstruction', XB=17.1,18.2,10.9,11.0,14.4,14.6, COLOR='GRAY 40', SURF_ID='Plasterboard'/ 
&OBST ID='Obstruction', XB=17.1,18.2,10.8,10.9,14.5,14.6, COLOR='GRAY 40', SURF_ID='Plasterboard'/ 
&OBST ID='Obstruction', XB=17.1,18.2,10.7,10.8,14.5,14.7, COLOR='GRAY 40', SURF_ID='Plasterboard'/ 
&OBST ID='Obstruction', XB=17.1,18.2,10.6,10.7,14.6,14.7, COLOR='GRAY 40', SURF_ID='Plasterboard'/ 
&OBST ID='Obstruction', XB=17.1,18.2,10.5,10.6,14.6,14.8, COLOR='GRAY 40', SURF_ID='Plasterboard'/ 
&OBST ID='Obstruction', XB=17.1,18.2,10.3,10.5,14.7,14.8, COLOR='GRAY 40', SURF_ID='Plasterboard'/ 
&OBST ID='Obstruction', XB=17.1,18.2,12.8,13.0,16.5,16.6, COLOR='GRAY 40', SURF_ID='Plasterboard'/ 
&OBST ID='Obstruction', XB=17.1,18.2,12.7,12.8,16.5,16.7, COLOR='GRAY 40', SURF_ID='Plasterboard'/ 
&OBST ID='Obstruction', XB=17.1,18.2,12.6,12.7,16.6,16.7, COLOR='GRAY 40', SURF_ID='Plasterboard'/ 
&OBST ID='Obstruction', XB=17.1,18.2,12.5,12.6,16.6,16.8, COLOR='GRAY 40', SURF_ID='Plasterboard'/ 
&OBST ID='Obstruction', XB=17.1,18.2,12.4,12.5,16.7,16.8, COLOR='GRAY 40', SURF_ID='Plasterboard'/ 
&OBST ID='Obstruction', XB=17.1,18.2,12.3,12.4,16.7,16.9, COLOR='GRAY 40', SURF_ID='Plasterboard'/ 
&OBST ID='Obstruction', XB=17.1,18.2,12.2,12.3,16.8,16.9, COLOR='GRAY 40', SURF_ID='Plasterboard'/ 
&OBST ID='Obstruction', XB=17.1,18.2,12.1,12.2,16.8,17.0, COLOR='GRAY 40', SURF_ID='Plasterboard'/ 
&OBST ID='Obstruction', XB=17.1,18.2,12.0,12.1,16.9,17.0, COLOR='GRAY 40', SURF_ID='Plasterboard'/ 
&OBST ID='Obstruction', XB=17.1,18.2,11.9,12.0,16.9,17.1, COLOR='GRAY 40', SURF_ID='Plasterboard'/ 
&OBST ID='Obstruction', XB=17.1,18.2,11.8,11.9,17.0,17.1, COLOR='GRAY 40', SURF_ID='Plasterboard'/ 
&OBST ID='Obstruction', XB=17.1,18.2,11.7,11.8,17.0,17.2, COLOR='GRAY 40', SURF_ID='Plasterboard'/ 
&OBST ID='Obstruction', XB=17.1,18.2,11.6,11.7,17.1,17.2, COLOR='GRAY 40', SURF_ID='Plasterboard'/ 
&OBST ID='Obstruction', XB=17.1,18.2,11.5,11.6,17.1,17.3, COLOR='GRAY 40', SURF_ID='Plasterboard'/ 
&OBST ID='Obstruction', XB=17.1,18.2,11.4,11.5,17.2,17.3, COLOR='GRAY 40', SURF_ID='Plasterboard'/ 
&OBST ID='Obstruction', XB=17.1,18.2,11.3,11.4,17.2,17.4, COLOR='GRAY 40', SURF_ID='Plasterboard'/ 
&OBST ID='Obstruction', XB=17.1,18.2,11.2,11.3,17.3,17.4, COLOR='GRAY 40', SURF_ID='Plasterboard'/ 
&OBST ID='Obstruction', XB=17.1,18.2,11.1,11.2,17.3,17.5, COLOR='GRAY 40', SURF_ID='Plasterboard'/ 
&OBST ID='Obstruction', XB=17.1,18.2,11.0,11.1,17.4,17.5, COLOR='GRAY 40', SURF_ID='Plasterboard'/ 
&OBST ID='Obstruction', XB=17.1,18.2,10.9,11.0,17.4,17.6, COLOR='GRAY 40', SURF_ID='Plasterboard'/ 